INNO_Zone 10_near_atria.fds
Generated by PyroSim - Version 2015.3.0810
Apr 25, 2017 4:48:32 PM
&HEAD CHID='INNO_QRA'/
&TIME T_END=600.0/
&DUMP  NFRAMES=180/, RENDER_FILE='INNO_Zone_10_near_atria.ge1', COLUMN_DUMP_LIMIT=.TRUE./


&MESH ID='MESH 3', IJK=286,132,8, XB=-52.0,91,-40.0,26.0,0.0,4/
MESH ID='MESH 3', IJK=70,132,8, XB=-14.0,21,-40.0,26.0,0.0,4/
MESH ID='MESH 3', IJK=70,132,8, XB=21.0,56.0,-40.0,26.0,0.0,4/
MESH ID='MESH 3', IJK=70,132,8, XB=56.0,91.0,-40.0,26.0,0.0,4/

&MISC TMPA=20.0, SURF_DEFAULT='WALL'/ RESTART=.TRUE./ 
&RADI RADIATION=.FALSE./

&DEVC ID='TIMER', QUANTITY='TIME', XYZ=-52.0,-40.0,0.0, SETPOINT=10000.0, INITIAL_STATE=.FALSE./ => to change


extraction and ventilation
========================================================================================================================================================================================================================================================================
&SURF ID='WALL',
      COLOR='GRAY 80',
      ADIABATIC=.TRUE./

&SURF ID='Extraction_0',
      RGB=204,0,0,
	  RAMP_V='Extraction_ramp' 	
      VOLUME_FLOW=1.389/ => to change

&SURF ID='Supply_0',
      RGB=204,0,0,
	  RAMP_V='Supply_ramp'
      VOLUME_FLOW=-1.389/  => to change	  

&SURF ID='Extraction_4',
      RGB=204,0,0,/=> to change
	  RAMP_V='Extraction_ramp' 	
      VOLUME_FLOW=0.7577/ 


&SURF ID='Supply_4',
      RGB=204,0,0,/=> to change
	  RAMP_V='Supply_ramp'
      VOLUME_FLOW=-0.7577/  	  

&RAMP ID='Extraction_ramp', T=0.0, F=0.0 /
&RAMP ID='Extraction_ramp', T=180.0,  F=0.0 /	  
&RAMP ID='Extraction_ramp', T=210.0,  F=1.0 /	 => to change
	  
&RAMP ID='Supply_ramp', T=0.0, F=0.0 /
&RAMP ID='Supply_ramp', T=180.0,  F=0.0 /		 
&RAMP ID='Supply_ramp', T=210.0,  F=1.0 /	 => to change	


&VENT ID='Mesh Vent: MESH 1 [XMAX]', SURF_ID='OPEN', XB=91.0,91.0,-40.0,26.0,-5.0,0.0/ 
&VENT ID='Mesh Vent: MESH 1 [XMIN]', SURF_ID='OPEN', XB=-52.0,-52.0,-40.0,26.0,-5.0,0.0/ 
&VENT ID='Mesh Vent: MESH 1 [YMAX]', SURF_ID='OPEN', XB=-52.0,91.0,26.0,26.0,-5.0,0.0/ 
&VENT ID='Mesh Vent: MESH 1 [YMIN]', SURF_ID='OPEN', XB=-52.0,91.0,-40.0,-40.0,-5.0,0.0/ 
&VENT ID='Mesh Vent: MESH 1 [ZMIN]', SURF_ID='OPEN', XB=-52.0,91.0,-40.0,26.0,-5.0,-5.0/ 
&VENT ID='Mesh Vent: MESH 2 [XMAX]', SURF_ID='OPEN', XB=91.0,91.0,-40.0,26.0,4.0,13.0/ 
&VENT ID='Mesh Vent: MESH 2 [XMIN]', SURF_ID='OPEN', XB=-52.0,-52.0,-40.0,26.0,4.0,13.0/ 
&VENT ID='Mesh Vent: MESH 2 [YMAX]', SURF_ID='OPEN', XB=-52.0,91.0,26.0,26.0,4.0,13.0/ 
&VENT ID='Mesh Vent: MESH 2 [YMIN]', SURF_ID='OPEN', XB=-52.0,91.0,-40.0,-40.0,4.0,13.0/ 
&VENT ID='Mesh Vent: MESH 01 [XMAX]', SURF_ID='OPEN', XB=91.0,91.0,-40.0,26.0,13.0,23.0/ 
&VENT ID='Mesh Vent: MESH 01 [XMIN]', SURF_ID='OPEN', XB=-52.0,-52.0,-40.0,26.0,13.0,23.0/ 
&VENT ID='Mesh Vent: MESH 01 [YMAX]', SURF_ID='OPEN', XB=-52.0,91.0,26.0,26.0,13.0,23.0/ 
&VENT ID='Mesh Vent: MESH 01 [YMIN]', SURF_ID='OPEN', XB=-52.0,91.0,-40.0,-40.0,13.0,23.0/ 
&VENT ID='Mesh Vent: MESH 01 [ZMAX]', SURF_ID='OPEN', XB=-52.0,91.0,-40.0,26.0,23.0,23.0/ 
&VENT ID='Mesh Vent: MESH 3 [XMAX]', SURF_ID='OPEN', XB=91.0,91.0,-40.0,26.0,0.0,4.0/ 
&VENT ID='Mesh Vent: MESH 3 [XMIN]', SURF_ID='OPEN', XB=-52.0,-52.0,-40.0,26.0,0.0,4.0/ 
&VENT ID='Mesh Vent: MESH 3 [YMAX]', SURF_ID='OPEN', XB=-52.0,91.0,26.0,26.0,0.0,4.0/ 
&VENT ID='Mesh Vent: MESH 3 [YMIN]', SURF_ID='OPEN', XB=-52.0,91.0,-40.0,-40.0,0.0,4.0/ 

extraction on the 4th floor
&OBST SURF_ID6='WALL','WALL','WALL','WALL','Supply_4','WALL', XB=-23.5,-23.0,11.5,12.0,21.0,21.5, RGB=0,0,102,/ L04_zone_01
&OBST SURF_ID6='WALL','WALL','WALL','WALL','Supply_4','WALL', XB=-19.5,-19.0,11.5,12.0,21.0,21.5, RGB=0,0,102,/ L04_zone_02
&OBST SURF_ID6='WALL','WALL','WALL','WALL','Supply_4','WALL', XB=-19.5,-19.0,4.5,5.0,21.0,21.5, RGB=0,0,102,/ L04_zone_03
&OBST SURF_ID6='WALL','WALL','WALL','WALL','Supply_4','WALL', XB=-23.5,-23.0,4.5,5.0,21.0,21.5, RGB=0,0,102,/ L04_zone_04
&OBST SURF_ID6='WALL','WALL','WALL','WALL','Supply_4','WALL', XB=-19.5,-19.0,-2.5,-2.0,21.0,21.5, RGB=0,0,102,/ L04_zone_05
&OBST SURF_ID6='WALL','WALL','WALL','WALL','Supply_4','WALL', XB=-23.5,-23.0,-2.5,-2.0,21.0,21.5, RGB=0,0,102,/ L04_zone_06
&OBST SURF_ID6='WALL','WALL','WALL','WALL','Supply_4','WALL', XB=-19.5,-19.0,-9.5,-9.0,21.0,21.5, RGB=0,0,102,/ L04_zone_07
&OBST SURF_ID6='WALL','WALL','WALL','WALL','Supply_4','WALL', XB=-23.5,-23.0,-9.5,-9.0,21.0,21.5, RGB=0,0,102,/ L04_zone_08
&OBST SURF_ID6='WALL','WALL','WALL','WALL','Supply_4','WALL', XB=-19.5,-19.0,-16.5,-16.0,21.0,21.5, RGB=0,0,102,/ L04_zone_09
&OBST SURF_ID6='WALL','WALL','WALL','WALL','Supply_4','WALL', XB=-23.5,-23.0,-16.5,-16.0,21.0,21.5, RGB=0,0,102,/ L04_zone_10
&OBST SURF_ID6='WALL','WALL','WALL','WALL','Supply_4','WALL', XB=-19.5,-19.0,-23.5,-23.0,21.0,21.5, RGB=0,0,102,/ L04_zone_11
&OBST SURF_ID6='WALL','WALL','WALL','WALL','Supply_4','WALL', XB=-23.5,-23.0,-23.5,-23.0,21.0,21.5, RGB=0,0,102,/ L04_zone_12
&OBST SURF_ID6='WALL','WALL','WALL','WALL','Supply_4','WALL', XB=9.5,10.0,-24.0,-23.5,21.0,21.5, RGB=0,0,102,/ L04_zone_13
&OBST SURF_ID6='WALL','WALL','WALL','WALL','Supply_4','WALL', XB=2.5,3.0,-24.0,-23.5,21.0,21.5, RGB=0,0,102,/ L04_zone_14
&OBST SURF_ID6='WALL','WALL','WALL','WALL','Supply_4','WALL', XB=9.5,10.0,-20.0,-19.5,21.0,21.5, RGB=0,0,102,/ L04_zone_15
&OBST SURF_ID6='WALL','WALL','WALL','WALL','Supply_4','WALL', XB=2.5,3.0,-20.0,-19.5,21.0,21.5, RGB=0,0,102,/ L04_zone_16
&OBST SURF_ID6='WALL','WALL','WALL','WALL','Supply_4','WALL', XB=2.5,3.0,-16.0,-15.5,21.0,21.5, RGB=0,0,102,/ L04_zone_17
&OBST SURF_ID6='WALL','WALL','WALL','WALL','Supply_4','WALL', XB=9.5,10.0,-16.0,-15.5,21.0,21.5, RGB=0,0,102,/ L04_zone_18
&OBST SURF_ID6='WALL','WALL','WALL','WALL','Supply_4','WALL', XB=2.5,3.0,-12.0,-11.5,21.0,21.5, RGB=0,0,102,/ L04_zone_19
&OBST SURF_ID6='WALL','WALL','WALL','WALL','Supply_4','WALL', XB=9.5,10.0,-12.0,-11.5,21.0,21.5, RGB=0,0,102,/ L04_zone_20
&OBST SURF_ID6='WALL','WALL','WALL','WALL','Supply_4','WALL', XB=2.5,3.0,-9.5,-9.0,21.0,21.5, RGB=0,0,102,/ L04_zone_21
&OBST SURF_ID6='WALL','WALL','WALL','WALL','Supply_4','WALL', XB=9.5,10.0,-9.5,-9.0,21.0,21.5, RGB=0,0,102,/ L04_zone_22
&OBST SURF_ID6='WALL','WALL','WALL','WALL','Extraction_4','WALL', XB=48.5,49.0,-24.0,-23.5,21.0,21.5, RGB=204,0,0/ L04_zone_23
&OBST SURF_ID6='WALL','WALL','WALL','WALL','Extraction_4','WALL', XB=41.5,42.0,-24.0,-23.5,21.0,21.5, RGB=204,0,0/ L04_zone_24
&OBST SURF_ID6='WALL','WALL','WALL','WALL','Extraction_4','WALL', XB=48.5,49.0,-20.0,-19.5,21.0,21.5, RGB=204,0,0/ L04_zone_25
&OBST SURF_ID6='WALL','WALL','WALL','WALL','Extraction_4','WALL', XB=41.5,42.0,-20.0,-19.5,21.0,21.5, RGB=204,0,0/ L04_zone_26
&OBST SURF_ID6='WALL','WALL','WALL','WALL','Extraction_4','WALL', XB=41.5,42.0,-16.0,-15.5,21.0,21.5, RGB=204,0,0/ L04_zone_27
&OBST SURF_ID6='WALL','WALL','WALL','WALL','Extraction_4','WALL', XB=48.5,49.0,-16.0,-15.5,21.0,21.5, RGB=204,0,0/ L04_zone_28
&OBST SURF_ID6='WALL','WALL','WALL','WALL','Extraction_4','WALL', XB=41.5,42.0,-12.0,-11.5,21.0,21.5, RGB=204,0,0/ L04_zone_29
&OBST SURF_ID6='WALL','WALL','WALL','WALL','Extraction_4','WALL', XB=48.5,49.0,-12.0,-11.5,21.0,21.5, RGB=204,0,0/ L04_zone_30
&OBST SURF_ID6='WALL','WALL','WALL','WALL','Extraction_4','WALL', XB=41.5,42.0,-9.5,-9.0,21.0,21.5, RGB=204,0,0/ L04_zone_31
&OBST SURF_ID6='WALL','WALL','WALL','WALL','Extraction_4','WALL', XB=48.5,49.0,-9.5,-9.0,21.0,21.5, RGB=204,0,0/ L04_zone_32
&OBST SURF_ID6='WALL','WALL','WALL','WALL','Extraction_4','WALL', XB=73.0,73.5,9.5,10.0,21.0,21.5, RGB=204,0,0/ L04_zone_33
&OBST SURF_ID6='WALL','WALL','WALL','WALL','Extraction_4','WALL', XB=68.0,68.5,9.5,10.0,21.0,21.5, RGB=204,0,0/ L04_zone_34
&OBST SURF_ID6='WALL','WALL','WALL','WALL','Extraction_4','WALL', XB=68.0,68.5,2.5,3.0,21.0,21.5, RGB=204,0,0/ L04_zone_35
&OBST SURF_ID6='WALL','WALL','WALL','WALL','Extraction_4','WALL', XB=73.0,73.5,2.5,3.0,21.0,21.5, RGB=204,0,0/ L04_zone_36
&OBST SURF_ID6='WALL','WALL','WALL','WALL','Extraction_4','WALL', XB=68.0,68.5,-4.5,-4.0,21.0,21.5, RGB=204,0,0/ L04_zone_37
&OBST SURF_ID6='WALL','WALL','WALL','WALL','Extraction_4','WALL', XB=73.0,73.5,-4.5,-4.0,21.0,21.5, RGB=204,0,0/ L04_zone_38
&OBST SURF_ID6='WALL','WALL','WALL','WALL','Extraction_4','WALL', XB=68.0,68.5,-11.5,-11.0,21.0,21.5, RGB=204,0,0/ L04_zone_39
&OBST SURF_ID6='WALL','WALL','WALL','WALL','Extraction_4','WALL', XB=73.0,73.5,-11.5,-11.0,21.0,21.5, RGB=204,0,0/ L04_zone_40
&OBST SURF_ID6='WALL','WALL','WALL','WALL','Extraction_4','WALL', XB=68.0,68.5,-18.5,-18.0,21.0,21.5, RGB=204,0,0/ L04_zone_41
&OBST SURF_ID6='WALL','WALL','WALL','WALL','Extraction_4','WALL', XB=73.0,73.5,-18.5,-18.0,21.0,21.5, RGB=204,0,0/ L04_zone_42
&OBST SURF_ID6='WALL','WALL','WALL','WALL','Extraction_4','WALL', XB=68.0,68.5,-23.5,-23.0,21.0,21.5, RGB=204,0,0/ L04_zone_43
&OBST SURF_ID6='WALL','WALL','WALL','WALL','Extraction_4','WALL', XB=73.0,73.5,-23.5,-23.0,21.0,21.5, RGB=204,0,0/ L04_zone_44
extraction on the ground floor
&OBST SURF_ID6='WALL','WALL','WALL','WALL','Extraction_0','WALL', XB=-23.5,-23.0,9.5,10.0,3.0,3.5,RGB=204,0,0/ L00_zone_01
&OBST SURF_ID6='WALL','WALL','WALL','WALL','Extraction_0','WALL', XB=-19.5,-19.0,9.5,10.0,2.5,3.0,RGB=204,0,0/ L00_zone_02
&OBST SURF_ID6='WALL','WALL','WALL','WALL','Extraction_0','WALL', XB=-19.5,-19.0,2.5,3.0,3.0,3.5,RGB=204,0,0/ L00_zone_03
&OBST SURF_ID6='WALL','WALL','WALL','WALL','Extraction_0','WALL', XB=-23.5,-23.0,2.5,3.0,3.0,3.5,RGB=204,0,0/ L00_zone_04
&OBST SURF_ID6='WALL','WALL','WALL','WALL','Extraction_0','WALL', XB=-19.5,-19.0,-4.5,-4.0,3.0,3.5,RGB=204,0,0/ L00_zone_05
&OBST SURF_ID6='WALL','WALL','WALL','WALL','Extraction_0','WALL', XB=-23.5,-23.0,-4.5,-4.0,3.0,3.5,RGB=204,0,0/ L00_zone_06
&OBST SURF_ID6='WALL','WALL','WALL','WALL','Extraction_0','WALL', XB=-19.5,-19.0,-11.5,-11.0,3.0,3.5,RGB=204,0,0/ L00_zone_07
&OBST SURF_ID6='WALL','WALL','WALL','WALL','Extraction_0','WALL', XB=-23.5,-23.0,-11.5,-11.0,3.0,3.5,RGB=204,0,0/ L00_zone_08
&OBST SURF_ID6='WALL','WALL','WALL','WALL','Extraction_0','WALL', XB=-19.5,-19.0,-18.5,-18.0,3.0,3.5,RGB=204,0,0/ L00_zone_09
&OBST SURF_ID6='WALL','WALL','WALL','WALL','Extraction_0','WALL', XB=-23.5,-23.0,-18.5,-18.0,3.0,3.5,RGB=204,0,0/ L00_zone_10
&OBST SURF_ID6='WALL','WALL','WALL','WALL','Extraction_0','WALL', XB=-19.5,-19.0,-25.5,-25.0,3.0,3.5,RGB=204,0,0/ L00_zone_11
&OBST SURF_ID6='WALL','WALL','WALL','WALL','Extraction_0','WALL', XB=-23.5,-23.0,-25.5,-25.0,3.0,3.5,RGB=204,0,0/ L00_zone_12
&OBST SURF_ID6='WALL','WALL','WALL','WALL','Supply_0','WALL', XB=36.0,36.5,9.5,10.0,3.0,3.5,RGB=0,0,102,/ L00_zone_13
&OBST SURF_ID6='WALL','WALL','WALL','WALL','Supply_0','WALL', XB=31.0,31.5,9.5,10.0,3.0,3.5,RGB=0,0,102,/ L00_zone_14
&OBST SURF_ID6='WALL','WALL','WALL','WALL','Supply_0','WALL', XB=31.0,31.5,2.5,3.0,3.0,3.5,RGB=0,0,102,/ L00_zone_15
&OBST SURF_ID6='WALL','WALL','WALL','WALL','Supply_0','WALL', XB=36.0,36.5,2.5,3.0,3.0,3.5,RGB=0,0,102,/ L00_zone_16
&OBST SURF_ID6='WALL','WALL','WALL','WALL','Supply_0','WALL', XB=31.0,31.5,-4.5,-4.0,3.0,3.5,RGB=0,0,102,/ L00_zone_17
&OBST SURF_ID6='WALL','WALL','WALL','WALL','Supply_0','WALL', XB=36.0,36.5,-4.5,-4.0,3.0,3.5,RGB=0,0,102,/ L00_zone_18
&OBST SURF_ID6='WALL','WALL','WALL','WALL','Supply_0','WALL', XB=31.0,31.5,-11.5,-11.0,3.0,3.5,RGB=0,0,102,/ L00_zone_19
&OBST SURF_ID6='WALL','WALL','WALL','WALL','Supply_0','WALL', XB=36.0,36.5,-11.5,-11.0,3.0,3.5,RGB=0,0,102,/ L00_zone_20
&OBST SURF_ID6='WALL','WALL','WALL','WALL','Supply_0','WALL', XB=31.0,31.5,-18.5,-18.0,3.0,3.5,RGB=0,0,102,/ L00_zone_21
&OBST SURF_ID6='WALL','WALL','WALL','WALL','Supply_0','WALL', XB=36.0,36.5,-18.5,-18.0,3.0,3.5,RGB=0,0,102,/ L00_zone_22
&OBST SURF_ID6='WALL','WALL','WALL','WALL','Supply_0','WALL', XB=31.0,31.5,-25.5,-25.0,3.0,3.5,RGB=0,0,102,/ L00_zone_23
&OBST SURF_ID6='WALL','WALL','WALL','WALL','Supply_0','WALL', XB=36.0,36.5,-25.5,-25.0,3.0,3.5,RGB=0,0,102,/ L00_zone_24


&OBST XB=-2.0,10.25,-8.5,0.0,-5.0,18.0, SURF_ID='WALL', PERMIT_HOLE=.FALSE., COLOR='YELLOW',DEVC_ID='TIMER'/
&OBST XB=40.25,52.5,-8.5,0.0,-5.0,23.0, SURF_ID='WALL', PERMIT_HOLE=.FALSE., COLOR='YELLOW',DEVC_ID='TIMER'/

fire 
======================================================================================================================================================================================================================================================================== 
&REAC ID='Reaction1',
      FUEL='REAC_FUEL',
      C=6.3,
      H=7.1,
      O=2.1,
      N=1.0,
      CO_YIELD=0.09,
      SOOT_YIELD=0.08,
      HEAT_OF_COMBUSTION=2.0E4/


&SURF ID='Fire1',
      COLOR='RED',
      HRRPUA=600, 
      RAMP_Q='Fire1'/=> to change
                  
&RAMP ID='Fire1', T= 00.0, F=1.0 /
&RAMP ID='Fire1', T= 6000, F=1.0 /

fire ground floor 

&VENT SURF_ID='Fire1', XB=-23.5,-13.5,-24.0,-14.0,1.0,1.0,COLOR='RED', SPREAD_RATE=0.009989, XYZ=-18.5,-19,01/ Fire 1	  => to change
VENT SURF_ID='Fire1', XB=-19.5,-17.5,-20.0,-18.0,1.0,1.0,COLOR='RED', SPREAD_RATE=0.009989, XYZ=-18.5,-19,01/ Fire 1	  => to change
&OBST XB=-23.5,-13.5,-24.0,-14.0,0.0,1.0, SURF_ID='WALL'/ fire
OBST XB=-19.5,-17.5,-20.0,-18.0,0.0,1.0, SURF_ID='WALL'/ fire => to change

fire top floor

VENT SURF_ID='Fire1', XB=62.0,72.0,-5.0,5.0,18.0,18.0,COLOR='RED', SPREAD_RATE=0.009989, XYZ=+67.0,0.0,19/ Fire 1	  => to change
VENT SURF_ID='Fire1', XB=66.0,68.0,-1.0,1.0,18.0,18.0,COLOR='RED', SPREAD_RATE=0.009989, XYZ=+67.0,0.0,19/ Fire 1	  => to change
OBST XB=62.0,72.0,-5.0,5.0,18.0,18.0, SURF_ID='WALL'/ fire
OBST XB=66.0,68.0,-1.0,1.0,18.0,18.0, SURF_ID='WALL'/ fire


========================================================================================================================================================================================================================================================================

Extra False ceiling (not in design)
____________


Floor 0
&OBST ID='Obstruction #43', XB=-46.0,86.0,-4.0,-2.0,3.5,4.0, COLOR='INVISIBLE', SURF_ID='WALL'/ 
&OBST ID='Obstruction #44', XB=-45.75,86.0,-7.75,-4.0,3.5,4.0, COLOR='INVISIBLE', SURF_ID='WALL'/ 
&OBST ID='Obstruction #45', XB=-45.5,86.0,-11.75,-7.75,3.5,4.0, COLOR='INVISIBLE', SURF_ID='WALL'/ 
&OBST ID='Obstruction #46', XB=-45.25,86.0,-15.5,-11.75,3.5,4.0, COLOR='INVISIBLE', SURF_ID='WALL'/ 
&OBST ID='Obstruction #47', XB=-45.0,86.0,-19.5,-15.5,3.5,4.0, COLOR='INVISIBLE', SURF_ID='WALL'/ 
&OBST ID='Obstruction #48', XB=-44.75,86.0,-23.25,-19.5,3.5,4.0, COLOR='INVISIBLE', SURF_ID='WALL'/ 
&OBST ID='Obstruction #49', XB=-44.5,-8.5,-27.25,-25.0,3.5,4.0, COLOR='INVISIBLE', SURF_ID='WALL'/ 
&OBST ID='Obstruction #50', XB=-44.5,51.75,-25.0,-24.75,3.5,4.0, COLOR='INVISIBLE', SURF_ID='WALL'/ 
&OBST ID='Obstruction #51', XB=-44.5,55.5,-24.75,-24.5,3.5,4.0, COLOR='INVISIBLE', SURF_ID='WALL'/ 
&OBST ID='Obstruction #52', XB=-44.5,55.75,-24.5,-24.25,3.5,4.0, COLOR='INVISIBLE', SURF_ID='WALL'/ 
&OBST ID='Obstruction #53', XB=-44.5,56.25,-24.25,-24.0,3.5,4.0, COLOR='INVISIBLE', SURF_ID='WALL'/ 
&OBST ID='Obstruction #54', XB=-44.5,86.0,-24.0,-23.25,3.5,4.0, COLOR='INVISIBLE', SURF_ID='WALL'/ 
&OBST ID='Obstruction #55', XB=-44.25,-8.5,-31.0,-29.5,3.5,4.0, COLOR='INVISIBLE', SURF_ID='WALL'/ 
&OBST ID='Obstruction #56', XB=-44.25,-8.5,-29.5,-27.25,3.5,4.0, COLOR='INVISIBLE', SURF_ID='WALL'/ 
&OBST ID='Obstruction #57', XB=-44.0,-8.5,-33.0,-31.0,3.5,4.0, COLOR='INVISIBLE', SURF_ID='WALL'/ 
&OBST ID='Obstruction #58', XB=-44.0,86.0,-2.0,-1.75,3.5,4.0, COLOR='INVISIBLE', SURF_ID='WALL'/ 
&OBST ID='Obstruction #59', XB=-40.0,86.0,-1.75,-1.5,3.5,4.0, COLOR='INVISIBLE', SURF_ID='WALL'/ 
&OBST ID='Obstruction #60', XB=-36.25,86.0,-1.5,-1.25,3.5,4.0, COLOR='INVISIBLE', SURF_ID='WALL'/ 
&OBST ID='Obstruction #61', XB=-35.0,86.0,11.5,14.0,3.5,4.0, COLOR='INVISIBLE', SURF_ID='WALL'/ 
&OBST ID='Obstruction #62', XB=-34.75,86.0,6.5,11.5,3.5,4.0, COLOR='INVISIBLE', SURF_ID='WALL'/ 
&OBST ID='Obstruction #63', XB=-34.5,86.0,1.25,6.5,3.5,4.0, COLOR='INVISIBLE', SURF_ID='WALL'/ 
&OBST ID='Obstruction #64', XB=-34.25,86.0,-1.25,1.25,3.5,4.0, COLOR='INVISIBLE', SURF_ID='WALL'/ 
&OBST ID='Obstruction #65', XB=-32.5,-21.25,-33.25,-33.0,3.5,4.0, COLOR='INVISIBLE', SURF_ID='WALL'/ 
&OBST ID='Obstruction #66', XB=12.75,34.0,-30.75,-25.5,3.5,4.0, COLOR='INVISIBLE', SURF_ID='WALL'/ 
&OBST ID='Obstruction #67', XB=12.75,37.25,-25.5,-25.25,3.5,4.0, COLOR='INVISIBLE', SURF_ID='WALL'/ 
&OBST ID='Obstruction #68', XB=12.75,44.5,-25.25,-25.0,3.5,4.0, COLOR='INVISIBLE', SURF_ID='WALL'/ 
&OBST ID='Obstruction #69', XB=15.0,34.0,-31.0,-30.75,3.5,4.0, COLOR='INVISIBLE', SURF_ID='WALL'/ 
&OBST ID='Obstruction #70', XB=17.0,34.0,-34.0,-31.0,3.5,4.0, COLOR='INVISIBLE', SURF_ID='WALL'/ 
&OBST ID='Obstruction #71', XB=58.5,86.0,-24.5,-24.0,3.5,4.0, COLOR='INVISIBLE', SURF_ID='WALL'/ 
&OBST ID='Obstruction #72', XB=59.5,63.0,-37.0,-36.75,3.5,4.0, COLOR='INVISIBLE', SURF_ID='WALL'/ 
&OBST ID='Obstruction #73', XB=59.5,70.25,-36.75,-36.5,3.5,4.0, COLOR='INVISIBLE', SURF_ID='WALL'/ 
&OBST ID='Obstruction #74', XB=59.5,88.75,-36.5,-35.25,3.5,4.0, COLOR='INVISIBLE', SURF_ID='WALL'/ 
&OBST ID='Obstruction #75', XB=59.75,88.75,-35.25,-35.0,3.5,4.0, COLOR='INVISIBLE', SURF_ID='WALL'/ 
&OBST ID='Obstruction #76', XB=60.25,88.75,-35.0,-34.75,3.5,4.0, COLOR='INVISIBLE', SURF_ID='WALL'/ 
&OBST ID='Obstruction #77', XB=60.5,88.75,-34.75,-33.5,3.5,4.0, COLOR='INVISIBLE', SURF_ID='WALL'/ 
&OBST ID='Obstruction #78', XB=60.75,88.75,-33.5,-31.25,3.5,4.0, COLOR='INVISIBLE', SURF_ID='WALL'/ 
&OBST ID='Obstruction #79', XB=61.0,88.75,-31.25,-30.0,3.5,4.0, COLOR='INVISIBLE', SURF_ID='WALL'/ 
&OBST ID='Obstruction #80', XB=62.25,86.0,-26.0,-24.5,3.5,4.0, COLOR='INVISIBLE', SURF_ID='WALL'/ 
&OBST ID='Obstruction #81', XB=62.25,88.75,-30.0,-26.0,3.5,4.0, COLOR='INVISIBLE', SURF_ID='WALL'/ 
&OBST ID='Obstruction #82', XB=73.75,88.75,-38.5,-36.5,3.5,4.0, COLOR='INVISIBLE', SURF_ID='WALL'/ 

Floor 1
&OBST ID='Obstruction #83', XB=-46.0,86.0,-4.0,-2.0,8.25,8.75, COLOR='INVISIBLE', SURF_ID='WALL'/ 
&OBST ID='Obstruction #84', XB=-45.75,86.0,-7.75,-4.0,8.25,8.75, COLOR='INVISIBLE', SURF_ID='WALL'/ 
&OBST ID='Obstruction #85', XB=-45.5,86.0,-11.75,-7.75,8.25,8.75, COLOR='INVISIBLE', SURF_ID='WALL'/ 
&OBST ID='Obstruction #86', XB=-45.25,86.0,-15.5,-11.75,8.25,8.75, COLOR='INVISIBLE', SURF_ID='WALL'/ 
&OBST ID='Obstruction #87', XB=-45.0,86.0,-19.5,-15.5,8.25,8.75, COLOR='INVISIBLE', SURF_ID='WALL'/ 
&OBST ID='Obstruction #88', XB=-44.75,86.0,-23.25,-19.5,8.25,8.75, COLOR='INVISIBLE', SURF_ID='WALL'/ 
&OBST ID='Obstruction #89', XB=-44.5,-8.5,-27.25,-25.0,8.25,8.75, COLOR='INVISIBLE', SURF_ID='WALL'/ 
&OBST ID='Obstruction #90', XB=-44.5,51.75,-25.0,-24.75,8.25,8.75, COLOR='INVISIBLE', SURF_ID='WALL'/ 
&OBST ID='Obstruction #91', XB=-44.5,55.5,-24.75,-24.5,8.25,8.75, COLOR='INVISIBLE', SURF_ID='WALL'/ 
&OBST ID='Obstruction #92', XB=-44.5,55.75,-24.5,-24.25,8.25,8.75, COLOR='INVISIBLE', SURF_ID='WALL'/ 
&OBST ID='Obstruction #93', XB=-44.5,56.25,-24.25,-24.0,8.25,8.75, COLOR='INVISIBLE', SURF_ID='WALL'/ 
&OBST ID='Obstruction #94', XB=-44.5,86.0,-24.0,-23.25,8.25,8.75, COLOR='INVISIBLE', SURF_ID='WALL'/ 
&OBST ID='Obstruction #95', XB=-44.25,-8.5,-31.0,-29.5,8.25,8.75, COLOR='INVISIBLE', SURF_ID='WALL'/ 
&OBST ID='Obstruction #96', XB=-44.25,-8.5,-29.5,-27.25,8.25,8.75, COLOR='INVISIBLE', SURF_ID='WALL'/ 
&OBST ID='Obstruction #97', XB=-44.0,-8.5,-33.0,-31.0,8.25,8.75, COLOR='INVISIBLE', SURF_ID='WALL'/ 
&OBST ID='Obstruction #98', XB=-44.0,86.0,-2.0,-1.75,8.25,8.75, COLOR='INVISIBLE', SURF_ID='WALL'/ 
&OBST ID='Obstruction #99', XB=-40.0,86.0,-1.75,-1.5,8.25,8.75, COLOR='INVISIBLE', SURF_ID='WALL'/ 
&OBST ID='Obstruction #100', XB=-36.25,86.0,-1.5,-1.25,8.25,8.75, COLOR='INVISIBLE', SURF_ID='WALL'/ 
&OBST ID='Obstruction #101', XB=-35.0,86.0,11.5,14.0,8.25,8.75, COLOR='INVISIBLE', SURF_ID='WALL'/ 
&OBST ID='Obstruction #102', XB=-34.75,86.0,6.5,11.5,8.25,8.75, COLOR='INVISIBLE', SURF_ID='WALL'/ 
&OBST ID='Obstruction #103', XB=-34.5,86.0,1.25,6.5,8.25,8.75, COLOR='INVISIBLE', SURF_ID='WALL'/ 
&OBST ID='Obstruction #104', XB=-34.25,86.0,-1.25,1.25,8.25,8.75, COLOR='INVISIBLE', SURF_ID='WALL'/ 
&OBST ID='Obstruction #105', XB=-32.5,-21.25,-33.25,-33.0,8.25,8.75, COLOR='INVISIBLE', SURF_ID='WALL'/ 
&OBST ID='Obstruction #106', XB=12.75,34.0,-30.75,-25.5,8.25,8.75, COLOR='INVISIBLE', SURF_ID='WALL'/ 
&OBST ID='Obstruction #107', XB=12.75,37.25,-25.5,-25.25,8.25,8.75, COLOR='INVISIBLE', SURF_ID='WALL'/ 
&OBST ID='Obstruction #108', XB=12.75,44.5,-25.25,-25.0,8.25,8.75, COLOR='INVISIBLE', SURF_ID='WALL'/ 
&OBST ID='Obstruction #109', XB=15.0,34.0,-31.0,-30.75,8.25,8.75, COLOR='INVISIBLE', SURF_ID='WALL'/ 
&OBST ID='Obstruction #110', XB=17.0,34.0,-34.0,-31.0,8.25,8.75, COLOR='INVISIBLE', SURF_ID='WALL'/ 
&OBST ID='Obstruction #111', XB=58.5,86.0,-24.5,-24.0,8.25,8.75, COLOR='INVISIBLE', SURF_ID='WALL'/ 
&OBST ID='Obstruction #112', XB=59.5,63.0,-37.0,-36.75,8.25,8.75, COLOR='INVISIBLE', SURF_ID='WALL'/ 
&OBST ID='Obstruction #113', XB=59.5,70.25,-36.75,-36.5,8.25,8.75, COLOR='INVISIBLE', SURF_ID='WALL'/ 
&OBST ID='Obstruction #114', XB=59.5,88.75,-36.5,-35.25,8.25,8.75, COLOR='INVISIBLE', SURF_ID='WALL'/ 
&OBST ID='Obstruction #115', XB=59.75,88.75,-35.25,-35.0,8.25,8.75, COLOR='INVISIBLE', SURF_ID='WALL'/ 
&OBST ID='Obstruction #116', XB=60.25,88.75,-35.0,-34.75,8.25,8.75, COLOR='INVISIBLE', SURF_ID='WALL'/ 
&OBST ID='Obstruction #117', XB=60.5,88.75,-34.75,-33.5,8.25,8.75, COLOR='INVISIBLE', SURF_ID='WALL'/ 
&OBST ID='Obstruction #118', XB=60.75,88.75,-33.5,-31.25,8.25,8.75, COLOR='INVISIBLE', SURF_ID='WALL'/ 
&OBST ID='Obstruction #119', XB=61.0,88.75,-31.25,-30.0,8.25,8.75, COLOR='INVISIBLE', SURF_ID='WALL'/ 
&OBST ID='Obstruction #120', XB=62.25,86.0,-26.0,-24.5,8.25,8.75, COLOR='INVISIBLE', SURF_ID='WALL'/ 
&OBST ID='Obstruction #121', XB=62.25,88.75,-30.0,-26.0,8.25,8.75, COLOR='INVISIBLE', SURF_ID='WALL'/ 
&OBST ID='Obstruction #122', XB=73.75,88.75,-38.5,-36.5,8.25,8.75, COLOR='INVISIBLE', SURF_ID='WALL'/ 
 
Floor 4
&OBST ID='Obstruction #203', XB=-46.0,86.0,-4.0,-2.0,21.5,22.0, COLOR='INVISIBLE', SURF_ID='WALL'/ 
&OBST ID='Obstruction #204', XB=-45.75,86.0,-7.75,-4.0,21.5,22.0, COLOR='INVISIBLE', SURF_ID='WALL'/ 
&OBST ID='Obstruction #205', XB=-45.5,86.0,-11.75,-7.75,21.5,22.0, COLOR='INVISIBLE', SURF_ID='WALL'/ 
&OBST ID='Obstruction #206', XB=-45.25,86.0,-15.5,-11.75,21.5,22.0, COLOR='INVISIBLE', SURF_ID='WALL'/ 
&OBST ID='Obstruction #207', XB=-45.0,86.0,-19.5,-15.5,21.5,22.0, COLOR='INVISIBLE', SURF_ID='WALL'/ 
&OBST ID='Obstruction #208', XB=-44.75,86.0,-23.25,-19.5,21.5,22.0, COLOR='INVISIBLE', SURF_ID='WALL'/ 
&OBST ID='Obstruction #209', XB=-44.5,-8.5,-27.25,-25.0,21.5,22.0, COLOR='INVISIBLE', SURF_ID='WALL'/ 
&OBST ID='Obstruction #210', XB=-44.5,51.75,-25.0,-24.75,21.5,22.0, COLOR='INVISIBLE', SURF_ID='WALL'/ 
&OBST ID='Obstruction #211', XB=-44.5,55.5,-24.75,-24.5,21.5,22.0, COLOR='INVISIBLE', SURF_ID='WALL'/ 
&OBST ID='Obstruction #212', XB=-44.5,55.75,-24.5,-24.25,21.5,22.0, COLOR='INVISIBLE', SURF_ID='WALL'/ 
&OBST ID='Obstruction #213', XB=-44.5,56.25,-24.25,-24.0,21.5,22.0, COLOR='INVISIBLE', SURF_ID='WALL'/ 
&OBST ID='Obstruction #214', XB=-44.5,86.0,-24.0,-23.25,21.5,22.0, COLOR='INVISIBLE', SURF_ID='WALL'/ 
&OBST ID='Obstruction #215', XB=-44.25,-8.5,-31.0,-29.5,21.5,22.0, COLOR='INVISIBLE', SURF_ID='WALL'/ 
&OBST ID='Obstruction #216', XB=-44.25,-8.5,-29.5,-27.25,21.5,22.0, COLOR='INVISIBLE', SURF_ID='WALL'/ 
&OBST ID='Obstruction #217', XB=-44.0,-8.5,-33.0,-31.0,21.5,22.0, COLOR='INVISIBLE', SURF_ID='WALL'/ 
&OBST ID='Obstruction #218', XB=-44.0,86.0,-2.0,-1.75,21.5,22.0, COLOR='INVISIBLE', SURF_ID='WALL'/ 
&OBST ID='Obstruction #219', XB=-40.0,86.0,-1.75,-1.5,21.5,22.0, COLOR='INVISIBLE', SURF_ID='WALL'/ 
&OBST ID='Obstruction #220', XB=-36.25,86.0,-1.5,-1.25,21.5,22.0, COLOR='INVISIBLE', SURF_ID='WALL'/ 
&OBST ID='Obstruction #221', XB=-35.0,86.0,11.5,14.0,21.5,22.0, COLOR='INVISIBLE', SURF_ID='WALL'/ 
&OBST ID='Obstruction #222', XB=-34.75,86.0,6.5,11.5,21.5,22.0, COLOR='INVISIBLE', SURF_ID='WALL'/ 
&OBST ID='Obstruction #223', XB=-34.5,86.0,1.25,6.5,21.5,22.0, COLOR='INVISIBLE', SURF_ID='WALL'/ 
&OBST ID='Obstruction #224', XB=-34.25,86.0,-1.25,1.25,21.5,22.0, COLOR='INVISIBLE', SURF_ID='WALL'/ 
&OBST ID='Obstruction #225', XB=-32.5,-8.5,-33.25,-33.0,21.5,22.0, COLOR='INVISIBLE', SURF_ID='WALL'/ 
&OBST ID='Obstruction #226', XB=12.75,34.0,-30.75,-25.5,21.5,22.0, COLOR='INVISIBLE', SURF_ID='WALL'/ 
&OBST ID='Obstruction #227', XB=12.75,37.25,-25.5,-25.25,21.5,22.0, COLOR='INVISIBLE', SURF_ID='WALL'/ 
&OBST ID='Obstruction #228', XB=12.75,44.5,-25.25,-25.0,21.5,22.0, COLOR='INVISIBLE', SURF_ID='WALL'/ 
&OBST ID='Obstruction #229', XB=15.0,34.0,-31.0,-30.75,21.5,22.0, COLOR='INVISIBLE', SURF_ID='WALL'/ 
&OBST ID='Obstruction #230', XB=17.0,34.0,-34.0,-31.0,21.5,22.0, COLOR='INVISIBLE', SURF_ID='WALL'/ 
&OBST ID='Obstruction #231', XB=58.5,86.0,-24.5,-24.0,21.5,22.0, COLOR='INVISIBLE', SURF_ID='WALL'/ 
&OBST ID='Obstruction #232', XB=59.5,63.0,-37.0,-36.75,21.5,22.0, COLOR='INVISIBLE', SURF_ID='WALL'/ 
&OBST ID='Obstruction #233', XB=59.5,70.25,-36.75,-36.5,21.5,22.0, COLOR='INVISIBLE', SURF_ID='WALL'/ 
&OBST ID='Obstruction #234', XB=59.5,88.75,-36.5,-35.25,21.5,22.0, COLOR='INVISIBLE', SURF_ID='WALL'/ 
&OBST ID='Obstruction #235', XB=59.75,88.75,-35.25,-35.0,21.5,22.0, COLOR='INVISIBLE', SURF_ID='WALL'/ 
&OBST ID='Obstruction #236', XB=60.25,88.75,-35.0,-34.75,21.5,22.0, COLOR='INVISIBLE', SURF_ID='WALL'/ 
&OBST ID='Obstruction #237', XB=60.5,88.75,-34.75,-33.5,21.5,22.0, COLOR='INVISIBLE', SURF_ID='WALL'/ 
&OBST ID='Obstruction #238', XB=60.75,88.75,-33.5,-31.25,21.5,22.0, COLOR='INVISIBLE', SURF_ID='WALL'/ 
&OBST ID='Obstruction #239', XB=61.0,88.75,-31.25,-30.0,21.5,22.0, COLOR='INVISIBLE', SURF_ID='WALL'/ 
&OBST ID='Obstruction #240', XB=62.25,86.0,-26.0,-24.5,21.5,22.0, COLOR='INVISIBLE', SURF_ID='WALL'/ 
&OBST ID='Obstruction #241', XB=62.25,88.75,-30.0,-26.0,21.5,22.0, COLOR='INVISIBLE', SURF_ID='WALL'/ 
&OBST ID='Obstruction #242', XB=73.75,88.75,-38.5,-36.5,21.5,22.0, COLOR='INVISIBLE', SURF_ID='WALL'/ 
____________






&OBST XB=71.25,74.5,14.0,22.0,-2.1,-1.8, RGB=0,0,102, PERMIT_HOLE=.FALSE., SURF_ID='WALL'/ stairs -1
&OBST XB=-8.5,8.5,-25.5,-25.25,-5.0,-0.9, RGB=0,153,0, SURF_ID='WALL'/ Evac stairs -1
&OBST XB=57.75,61.5,-29.25,-24.75,-5.0,-0.9, RGB=0,153,0, SURF_ID='WALL'/ Evac stairs -1
&OBST XB=67.75,83.75,13.75,14.0,-5.0,-0.9, RGB=0,153,0, SURF_ID='WALL'/ Evac stairs -1
&OBST XB=-34.0,-17.25,13.75,14.0022,-5.0,-0.9, RGB=0,153,0, SURF_ID='WALL'/ Evac stairs -1
&OBST XB=17.0,37.0,14.0,14.25,-5.0,-0.9, RGB=0,153,0, SURF_ID='WALL'/ Evac stairs -1
&OBST XB=4.75,8.25,-33.3088,-25.5,-2.5,-2.2, RGB=0,0,102, PERMIT_HOLE=.FALSE., SURF_ID='WALL'/ stairs -1
&OBST XB=80.25,83.75,14.0,22.0,-3.3,-3.0, RGB=0,0,102, PERMIT_HOLE=.FALSE., SURF_ID='WALL'/ stairs -1
&OBST XB=41.75,45.75,-33.5,-25.0,-2.5,-2.2, RGB=0,0,102, PERMIT_HOLE=.FALSE., SURF_ID='WALL'/ stairs -1
&OBST XB=33.0,37.0,14.25,22.0,-2.5,-2.2, RGB=0,0,102, PERMIT_HOLE=.FALSE., SURF_ID='WALL'/ stairs -1
&OBST XB=-21.0,-17.25,14.0,22.25,-2.5,-2.2, RGB=0,0,102, PERMIT_HOLE=.FALSE., SURF_ID='WALL'/ stairs -1
&OBST XB=-26.9158,-22.0607,-0.397023,-0.0970234,-4.5,-0.9, COLOR='INVISIBLE', SURF_ID='WALL'/ internal wall -1
&OBST XB=26.0,26.2,-25.0,14.0,-1.9,-0.9, COLOR='YELLOW', SURF_ID='WALL', DEVC_ID='TIMER'/ midde curtain - floor -1
&OBST XB=0.217908,8.21129,-8.62714,-8.32714,-4.5,-0.9, COLOR='YELLOW', SURF_ID='WALL'/ side glass -floor-1
&OBST XB=0.289762,8.13618,-0.246797,0.0532028,-4.5,-0.9, COLOR='YELLOW', SURF_ID='WALL'/ side glass -floor-1
&OBST XB=42.1799,50.1047,-8.62714,-8.32714,-4.5,-0.9, COLOR='YELLOW', SURF_ID='WALL'/ side glass -floor-1
&OBST XB=42.2898,50.1362,-0.246797,0.0532028,-4.5,-0.9, COLOR='YELLOW', SURF_ID='WALL'/ side glass -floor-1
&OBST XB=-33.9,-33.3,8.1,8.7,-4.5,-0.9, SURF_ID='WALL'/ column -1
&OBST XB=-25.5,-24.9,8.1,8.7,-4.5,-0.9, SURF_ID='WALL'/ column -1
&OBST XB=-17.1,-16.5,8.1,8.7,-4.5,-0.9, SURF_ID='WALL'/ column -1
&OBST XB=-8.7,-8.1,8.1,8.7,-4.5,-0.9, SURF_ID='WALL'/ column -1
&OBST XB=-0.3,0.3,8.1,8.7,-4.5,-0.9, SURF_ID='WALL'/ column -1
&OBST XB=8.1,8.7,8.1,8.7,-4.5,-0.9, SURF_ID='WALL'/ column -1
&OBST XB=16.5,17.1,8.1,8.7,-4.5,-0.9, SURF_ID='WALL'/ column -1
&OBST XB=24.9,25.5,8.1,8.7,-4.5,-0.9, SURF_ID='WALL'/ column -1
&OBST XB=33.3,33.9,8.1,8.7,-4.5,-0.9, SURF_ID='WALL'/ column -1
&OBST XB=41.7,42.3,8.1,8.7,-4.5,-0.9, SURF_ID='WALL'/ column -1
&OBST XB=50.1,50.7,8.1,8.7,-4.5,-0.9, SURF_ID='WALL'/ column -1
&OBST XB=58.5,59.1,8.1,8.7,-4.5,-0.9, SURF_ID='WALL'/ column -1
&OBST XB=66.9,67.5,8.1,8.7,-4.5,-0.9, SURF_ID='WALL'/ column -1
&OBST XB=75.3,75.9,8.1,8.7,-4.5,-0.9, SURF_ID='WALL'/ column -1
&OBST XB=83.7,84.3,8.1,8.7,-4.5,-0.9, SURF_ID='WALL'/ column -1
&OBST XB=-33.9,-33.3,-0.3,0.3,-4.5,-0.9, SURF_ID='WALL'/ column -1
&OBST XB=-25.5,-24.9,-0.3,0.3,-4.5,-0.9, SURF_ID='WALL'/ column -1
&OBST XB=-17.1,-16.5,-0.3,0.3,-4.5,-0.9, SURF_ID='WALL'/ column -1
&OBST XB=-8.7,-8.1,-0.3,0.3,-4.5,-0.9, SURF_ID='WALL'/ column -1
&OBST XB=-0.3,0.3,-0.3,0.3,-4.5,-0.9, SURF_ID='WALL'/ column -1
&OBST XB=8.1,8.7,-0.3,0.3,-4.5,-0.9, SURF_ID='WALL'/ column -1
&OBST XB=16.5,17.1,-0.3,0.3,-4.5,-0.9, SURF_ID='WALL'/ column -1
&OBST XB=24.9,25.5,-0.3,0.3,-4.5,-0.9, SURF_ID='WALL'/ column -1
&OBST XB=33.3,33.9,-0.3,0.3,-4.5,-0.9, SURF_ID='WALL'/ column -1
&OBST XB=41.7,42.3,-0.3,0.3,-4.5,-0.9, SURF_ID='WALL'/ column -1
&OBST XB=50.1,50.7,-0.3,0.3,-4.5,-0.9, SURF_ID='WALL'/ column -1
&OBST XB=58.5,59.1,-0.3,0.3,-4.5,-0.9, SURF_ID='WALL'/ column -1
&OBST XB=66.9,67.5,-0.3,0.3,-4.5,-0.9, SURF_ID='WALL'/ column -1