

&HEAD CHID='toxicity_analysis'/
&TIME T_END=120.0/

&MISC SUPPRESSION=.FALSE. /

&MESH ID='Mesh1', IJK=48,36,12, XB=-1.0,11.0,-1.0,8.0,0.0,3.0 /

&VENT SURF_ID='OPEN', XB=11.0,11.0,-1.0,8.0,0.0,3.0/ Mesh Vent: Mesh1 [XMAX]
&VENT SURF_ID='OPEN', XB=-1.0,-1.0,-1.0,8.0,0.0,3.0/ Mesh Vent: Mesh1 [XMIN]
&VENT SURF_ID='OPEN', XB=-1.0,11.0,8.0,8.0,0.0,3.0/ Mesh Vent: Mesh1 [YMAX]
&VENT SURF_ID='OPEN', XB=-1.0,11.0,-1.0,-1.0,0.0,3.0/ Mesh Vent: Mesh1 [YMIN]
&VENT SURF_ID='OPEN', XB=-1.0,11.0,-1.0,8.0,3.0,3.0/ Mesh Vent: Mesh1 [ZMAX]

~Brennstoffe~
&SPEC ID = 'POLYURETHANE', FORMULA = 'C25H42O6N2' /

~Anwesende Gase, greift auf Bib zurueck~
&SPEC ID = 'OXYGEN', LUMPED_COMPONENT_ONLY = .TRUE. /
&SPEC ID = 'NITROGEN', LUMPED_COMPONENT_ONLY = .TRUE. /
&SPEC ID = 'WATER VAPOR', LUMPED_COMPONENT_ONLY = .TRUE. /
&SPEC ID = 'CARBON MONOXIDE', LUMPED_COMPONENT_ONLY = .TRUE. /
&SPEC ID = 'CARBON DIOXIDE', LUMPED_COMPONENT_ONLY = .TRUE. /
&SPEC ID = 'SOOT', LUMPED_COMPONENT_ONLY=.TRUE., FORMULA='C1H0'/
&SPEC ID='HYDROGEN CYANIDE', LUMPED_COMPONENT_ONLY=.TRUE. /					

~Hintergrundgas, Oxidationsmittel in diesem Fall, da Luft~
&SPEC ID = 'AIR',
SPEC_ID(1) = 'OXYGEN', VOLUME_FRACTION(1)=1,
SPEC_ID(2) = 'NITROGEN', VOLUME_FRACTION(2)=3.761904762,
BACKGROUND=.TRUE. /


~ Reaktionsprodukte~
&SPEC ID = 'PRODUCTS_1',
SPEC_ID(1) = 'CARBON DIOXIDE', VOLUME_FRACTION(1) = 13.50759,
SPEC_ID(2) = 'CARBON MONOXIDE', VOLUME_FRACTION(2) = 2.032357,
SPEC_ID(3) = 'WATER VAPOR', VOLUME_FRACTION(3) = 20.939570,
SPEC_ID(4) = 'SOOT', VOLUME_FRACTION(4) = 2.175577,
SPEC_ID(5) = 'NITROGEN', VOLUME_FRACTION(5) = 83.85131 
SPEC_ID(6)='HYDROGEN CYANIDE', VOLUME_FRACTION(6)=0.12086/

~Verbrennungsreaktion~
&REAC ID = 'plastic',
FUEL = 'POLYURETHANE',
CHECK_ATOM_BALANCE = .FALSE.
HEAT_OF_COMBUSTION=18770,
SPEC_ID_NU = 'POLYURETHANE','AIR','PRODUCTS_1'
REAC_MASS_ERROR =0.025
NU=-1,-21.99355,1 /
~Brandflaeche~

&OBST XB=5.0,5.5,5.5,7.5,0.0,2.5, RGB=255.0,255.0,255.0, TRANSPARENCY=0.407843, SURF_ID='INERT'/ AcDb3dSolid - 14AD
&OBST XB=-0.5,0.0,7.0,7.5,0.0,2.5, RGB=91.0,91.0,91.0, SURF_ID='INERT'/ AcDb3dSolid - 13D9
&OBST XB=-0.5,10.5,7.5,8.0,0.0,2.5, RGB=91.0,91.0,91.0, SURF_ID='INERT'/ AcDb3dSolid - 13D9
&OBST XB=10.0,10.5,7.0,7.5,0.0,2.5, RGB=91.0,91.0,91.0, SURF_ID='INERT'/ AcDb3dSolid - 13D9
&OBST XB=-0.5,0.0,0.0,5.0,0.0,2.5, RGB=91.0,91.0,91.0, SURF_ID='INERT'/ AcDb3dSolid - 16F9
&OBST XB=-0.5,0.0,5.5,6.0,0.0,2.5, RGB=91.0,91.0,91.0, SURF_ID='INERT'/ AcDb3dSolid - 16F9
&OBST XB=-0.5,1.5,5.0,5.5,0.0,2.5, RGB=91.0,91.0,91.0, SURF_ID='INERT'/ AcDb3dSolid - 16F9
&OBST XB=-0.5,10.5,-0.5,0.0,0.0,2.5, RGB=91.0,91.0,91.0, SURF_ID='INERT'/ AcDb3dSolid - 16F9
&OBST XB=8.5,10.5,5.0,5.5,0.0,2.5, RGB=91.0,91.0,91.0, SURF_ID='INERT'/ AcDb3dSolid - 16F9
&OBST XB=10.0,10.5,0.0,5.0,0.0,2.5, RGB=91.0,91.0,91.0, SURF_ID='INERT'/ AcDb3dSolid - 16F9
&OBST XB=10.0,10.5,5.5,6.0,0.0,2.5, RGB=91.0,91.0,91.0, SURF_ID='INERT'/ AcDb3dSolid - 16F9
&OBST XB=2.5,7.5,5.0,5.5,0.0,2.5, RGB=91.0,91.0,91.0, SURF_ID='INERT'/ AcDb3dSolid - 16FE
&OBST XB=1.5,2.5,5.0,5.5,2.0,2.5, RGB=91.0,91.0,91.0, SURF_ID='INERT'/ AcDb3dSolid - 1445
&OBST XB=7.5,8.5,5.0,5.5,2.0,2.5, RGB=91.0,91.0,91.0, SURF_ID='INERT'/ AcDb3dSolid - 1452
&OBST XB=-0.5,0.0,6.0,7.0,2.0,2.5, RGB=91.0,91.0,91.0, SURF_ID='INERT'/ AcDb3dSolid - 1456
&OBST XB=10.0,10.5,6.0,7.0,2.0,2.5, RGB=91.0,91.0,91.0, SURF_ID='INERT'/ AcDb3dSolid - 1463
&OBST XB=-0.5,10.5,-0.5,8.0,2.5,2.75, RGB=91.0,91.0,91.0, SURF_ID='INERT'/ AcDb3dSolid - 1469

&VENT SURF_ID='FIRE1', XB=9.5,10.0,6.0,6.5,0.0,0.0/ Vent

&SURF ID='FIRE1', SPEC_ID(1)='POLYURETHANE', MASS_FLUX(1)=0.002663825253 /

&SLCF PBZ = 2.0 QUANTITY = 'TEMPERATURE' /
&SLCF PBZ = 2.0 QUANTITY = 'MASS FRACTION', SPEC_ID='HYDROGEN CYANIDE'/
&SLCF PBZ = 2.0 QUANTITY = 'MASS FRACTION', SPEC_ID='CARBON MONOXIDE' /
&SLCF PBZ = 2.0 QUANTITY = 'MASS FRACTION', SPEC_ID='CARBON DIOXIDE' /


&TAIL /
